<?xml version="1.0" encoding="UTF-8"?>
<routes>
    <!-- Vehicle type definitions -->
    <vType id="car" accel="2.5" decel="4.5" length="5" maxSpeed="30" sigma="0.5" guiShape="passenger"/>
    <vType id="truck" accel="1.0" decel="2.0" length="10" maxSpeed="20" sigma="0.5" guiShape="truck"/>
    <vType id="bus" accel="1.2" decel="2.5" length="12" maxSpeed="25" sigma="0.5" guiShape="bus"/>

    <!-- Light traffic: fewer vehicles overall -->
    <flow id="flow_car_light" type="car" begin="0" end="600" number="50" from="edge_start_end" to="edge_end_start"
          departLane="random" departSpeed="random"/>
    <flow id="flow_truck_light" type="truck" begin="0" end="600" number="20" from="edge_start_end" to="edge_end_start"
          departLane="random" departSpeed="random"/>
    <flow id="flow_bus_light" type="bus" begin="0" end="600" number="10" from="edge_start_end" to="edge_end_start"
          departLane="random" departSpeed="random"/>
</routes>
