<?xml version="1.0" encoding="UTF-8"?>

<!-- generated on 2024-10-26 15:50:07 by Eclipse SUMO netedit Version 1.21.0
<neteditConfiguration xmlns:xsi="http://www.w3.org/2001/XMLSchema-instance" xsi:noNamespaceSchemaLocation="http://sumo.dlr.de/xsd/neteditConfiguration.xsd">

    <input>
        <sumo-net-file value="/home/mayank/UMD/Sem3/CMSC818B/FINAL_PROJECT/rl_mpc/config/highway.net.xml"/>
    </input>

    <output>
        <output-file value="/home/mayank/UMD/Sem3/CMSC818B/FINAL_PROJECT/rl_mpc/config/highway.net.xml"/>
    </output>

    <processing>
        <geometry.min-radius.fix.railways value="false"/>
        <geometry.max-grade.fix value="false"/>
        <offset.disable-normalization value="true"/>
        <lefthand value="0"/>
    </processing>

    <junctions>
        <no-turnarounds value="true"/>
        <junctions.corner-detail value="5"/>
        <junctions.limit-turn-speed value="5.50"/>
        <rectangular-lane-cut value="0"/>
    </junctions>

    <pedestrian>
        <walkingareas value="0"/>
    </pedestrian>

</neteditConfiguration>
-->

<net version="1.20" junctionCornerDetail="5" limitTurnSpeed="5.50" xmlns:xsi="http://www.w3.org/2001/XMLSchema-instance" xsi:noNamespaceSchemaLocation="http://sumo.dlr.de/xsd/net_file.xsd">

    <location netOffset="0.00,0.00" convBoundary="-13.72,29.75,51.53,76.28" origBoundary="-10000000000.00,-10000000000.00,10000000000.00,10000000000.00" projParameter="!"/>

    <edge id=":e1_0" function="internal">
        <lane id=":e1_0_0" index="0" speed="11.35" length="6.05" shape="4.80,89.98 1.62,89.82 -0.57,89.30 -2.49,88.12 -4.86,85.99"/>
        <lane id=":e1_0_1" index="1" speed="10.05" length="6.05" shape="4.87,86.78 2.39,86.65 0.68,86.25 -0.81,85.33 -2.65,83.67"/>
        <lane id=":e1_0_2" index="2" speed="8.57" length="6.05" shape="4.93,83.58 3.16,83.49 1.94,83.20 0.88,82.55 -0.44,81.36"/>
        <lane id=":e1_0_3" index="3" speed="6.77" length="6.05" shape="4.99,80.38 3.93,80.33 3.20,80.15 2.56,79.76 1.77,79.05"/>
        <lane id=":e1_0_4" index="4" speed="4.27" length="6.05" shape="5.06,77.18 4.70,77.16 4.46,77.10 4.25,76.97 3.98,76.74"/>
    </edge>
    <edge id=":e2_0" function="internal">
        <lane id=":e2_0_0" index="0" speed="11.64" length="5.49" shape="-21.22,70.34 -23.27,68.28 -24.45,66.61 -25.09,64.67 -25.55,61.81"/>
        <lane id=":e2_0_1" index="1" speed="10.31" length="5.49" shape="-19.01,68.02 -20.60,66.42 -21.52,65.13 -22.02,63.62 -22.37,61.39"/>
        <lane id=":e2_0_2" index="2" speed="8.79" length="5.49" shape="-16.80,65.71 -17.94,64.57 -18.59,63.64 -18.95,62.57 -19.20,60.97"/>
        <lane id=":e2_0_3" index="3" speed="6.93" length="5.49" shape="-14.59,63.40 -15.27,62.71 -15.66,62.16 -15.88,61.51 -16.03,60.56"/>
        <lane id=":e2_0_4" index="4" speed="4.35" length="5.49" shape="-12.38,61.09 -12.60,60.86 -12.73,60.67 -12.81,60.46 -12.86,60.14"/>
    </edge>
    <edge id=":e3_0" function="internal">
        <lane id=":e3_0_0" index="0" speed="10.38" length="16.40" shape="-28.00,43.18 -28.04,38.89 -26.96,35.13 -24.77,31.89 -21.47,29.16"/>
        <lane id=":e3_0_1" index="1" speed="9.21" length="12.75" shape="-24.82,42.76 -24.86,39.43 -24.02,36.50 -22.32,33.98 -19.74,31.86"/>
        <lane id=":e3_0_2" index="2" speed="7.87" length="9.11" shape="-21.65,42.34 -21.67,39.96 -21.08,37.87 -19.86,36.07 -18.02,34.56"/>
        <lane id=":e3_0_3" index="3" speed="6.24" length="5.47" shape="-18.48,41.93 -18.49,40.50 -18.13,39.24 -17.40,38.16 -16.30,37.25"/>
        <lane id=":e3_0_4" index="4" speed="3.99" length="1.82" shape="-15.31,41.51 -15.31,41.03 -15.19,40.61 -14.95,40.25 -14.58,39.95"/>
    </edge>
    <edge id=":e4_0" function="internal">
        <lane id=":e4_0_0" index="0" speed="12.49" length="4.48" shape="-4.06,18.05 -2.03,16.81 -0.51,16.15 1.12,15.87 3.49,15.79"/>
        <lane id=":e4_0_1" index="1" speed="11.06" length="4.48" shape="-2.33,20.75 -0.76,19.78 0.42,19.27 1.69,19.05 3.54,18.99"/>
        <lane id=":e4_0_2" index="2" speed="9.41" length="4.48" shape="-0.61,23.45 0.51,22.76 1.35,22.39 2.26,22.23 3.58,22.19"/>
        <lane id=":e4_0_3" index="3" speed="7.41" length="4.48" shape="1.11,26.14 1.78,25.73 2.29,25.51 2.83,25.42 3.62,25.39"/>
        <lane id=":e4_0_4" index="4" speed="13.89" length="4.48" shape="2.83,28.84 3.05,28.70 3.22,28.63 3.40,28.60 3.67,28.59"/>
    </edge>
    <edge id=":e5_0" function="internal">
        <lane id=":e5_0_0" index="0" speed="12.09" length="4.87" shape="35.67,15.35 38.25,15.37 40.03,15.65 41.68,16.38 43.86,17.77"/>
        <lane id=":e5_0_1" index="1" speed="10.71" length="4.87" shape="35.72,18.55 37.72,18.57 39.11,18.78 40.39,19.35 42.08,20.43"/>
        <lane id=":e5_0_2" index="2" speed="9.12" length="4.87" shape="35.76,21.75 37.19,21.76 38.18,21.92 39.10,22.32 40.31,23.09"/>
        <lane id=":e5_0_3" index="3" speed="7.19" length="4.87" shape="35.80,24.95 36.66,24.96 37.26,25.05 37.81,25.29 38.53,25.76"/>
        <lane id=":e5_0_4" index="4" speed="13.89" length="4.87" shape="35.85,28.15 36.13,28.15 36.33,28.18 36.52,28.26 36.76,28.42"/>
    </edge>
    <edge id=":e6_0" function="internal">
        <lane id=":e6_0_0" index="0" speed="10.86" length="12.48" shape="57.51,26.87 59.98,28.90 61.86,31.29 63.14,34.05 63.82,37.17"/>
        <lane id=":e6_0_1" index="1" speed="9.63" length="9.71" shape="55.73,29.53 57.66,31.11 59.11,32.97 60.11,35.12 60.64,37.55"/>
        <lane id=":e6_0_2" index="2" speed="8.22" length="6.93" shape="53.96,32.19 55.33,33.32 56.37,34.65 57.08,36.18 57.47,37.92"/>
        <lane id=":e6_0_3" index="3" speed="6.50" length="4.16" shape="52.18,34.86 53.01,35.53 53.63,36.33 54.06,37.25 54.29,38.29"/>
        <lane id=":e6_0_4" index="4" speed="4.13" length="1.39" shape="50.41,37.52 50.68,37.74 50.89,38.01 51.03,38.32 51.11,38.66"/>
    </edge>
    <edge id=":e7_0" function="internal">
        <lane id=":e7_0_0" index="0" speed="11.92" length="5.08" shape="65.83,54.31 66.08,56.99 65.97,58.87 65.35,60.65 64.09,63.03"/>
        <lane id=":e7_0_1" index="1" speed="10.56" length="5.08" shape="62.65,54.69 62.85,56.77 62.76,58.23 62.28,59.62 61.30,61.47"/>
        <lane id=":e7_0_2" index="2" speed="8.99" length="5.08" shape="59.48,55.06 59.62,56.55 59.55,57.59 59.21,58.58 58.51,59.90"/>
        <lane id=":e7_0_3" index="3" speed="7.09" length="5.08" shape="56.30,55.43 56.38,56.32 56.34,56.95 56.14,57.54 55.72,58.34"/>
        <lane id=":e7_0_4" index="4" speed="4.44" length="5.08" shape="53.12,55.80 53.15,56.10 53.13,56.31 53.07,56.51 52.93,56.77"/>
    </edge>
    <edge id=":e8_0" function="internal">
        <lane id=":e8_0_0" index="0" speed="10.45" length="15.60" shape="52.72,83.32 50.34,86.60 47.40,88.92 43.91,90.28 39.87,90.68"/>
        <lane id=":e8_0_1" index="1" speed="9.27" length="12.14" shape="49.93,81.76 48.08,84.31 45.79,86.11 43.08,87.17 39.94,87.48"/>
        <lane id=":e8_0_2" index="2" speed="7.92" length="8.67" shape="47.14,80.19 45.81,82.02 44.18,83.30 42.24,84.06 40.00,84.28"/>
        <lane id=":e8_0_3" index="3" speed="6.27" length="5.20" shape="44.35,78.63 43.55,79.72 42.57,80.49 41.41,80.95 40.06,81.08"/>
        <lane id=":e8_0_4" index="4" speed="4.01" length="1.73" shape="41.56,77.06 41.29,77.43 40.96,77.68 40.58,77.84 40.13,77.88"/>
    </edge>

    <edge id="gneE10" from="e3" to="e4" priority="-1" length="40.65">
        <lane id="gneE10_0" index="0" speed="13.89" length="40.65" shape="-21.47,29.16 -4.06,18.05"/>
        <lane id="gneE10_1" index="1" speed="13.89" length="40.65" shape="-19.74,31.86 -2.33,20.75"/>
        <lane id="gneE10_2" index="2" speed="13.89" length="40.65" shape="-18.02,34.56 -0.61,23.45"/>
        <lane id="gneE10_3" index="3" speed="13.89" length="40.65" shape="-16.30,37.25 1.11,26.14"/>
        <lane id="gneE10_4" index="4" speed="13.89" length="40.65" shape="-14.58,39.95 2.83,28.84"/>
    </edge>
    <edge id="gneE11" from="e4" to="e5" priority="-1" length="64.18">
        <lane id="gneE11_0" index="0" speed="13.89" length="64.18" shape="3.49,15.79 35.67,15.35"/>
        <lane id="gneE11_1" index="1" speed="13.89" length="64.18" shape="3.54,18.99 35.72,18.55"/>
        <lane id="gneE11_2" index="2" speed="13.89" length="64.18" shape="3.58,22.19 35.76,21.75"/>
        <lane id="gneE11_3" index="3" speed="13.89" length="64.18" shape="3.62,25.39 35.80,24.95"/>
        <lane id="gneE11_4" index="4" speed="13.89" length="64.18" shape="3.67,28.59 35.85,28.15"/>
    </edge>
    <edge id="gneE12" from="e5" to="e6" priority="-1" length="32.41">
        <lane id="gneE12_0" index="0" speed="13.89" length="32.41" shape="43.86,17.77 57.51,26.87"/>
        <lane id="gneE12_1" index="1" speed="13.89" length="32.41" shape="42.08,20.43 55.73,29.53"/>
        <lane id="gneE12_2" index="2" speed="13.89" length="32.41" shape="40.31,23.09 53.96,32.19"/>
        <lane id="gneE12_3" index="3" speed="13.89" length="32.41" shape="38.53,25.76 52.18,34.86"/>
        <lane id="gneE12_4" index="4" speed="13.89" length="32.41" shape="36.76,28.42 50.41,37.52"/>
    </edge>
    <edge id="gneE13" from="e6" to="e7" priority="-1" length="34.26">
        <lane id="gneE13_0" index="0" speed="13.89" length="34.26" shape="63.82,37.17 65.83,54.31"/>
        <lane id="gneE13_1" index="1" speed="13.89" length="34.26" shape="60.64,37.55 62.65,54.69"/>
        <lane id="gneE13_2" index="2" speed="13.89" length="34.26" shape="57.47,37.92 59.48,55.06"/>
        <lane id="gneE13_3" index="3" speed="13.89" length="34.26" shape="54.29,38.29 56.30,55.43"/>
        <lane id="gneE13_4" index="4" speed="13.89" length="34.26" shape="51.11,38.66 53.12,55.80"/>
    </edge>
    <edge id="gneE14" from="e7" to="e8" priority="-1" length="46.00">
        <lane id="gneE14_0" index="0" speed="13.89" length="46.00" shape="64.09,63.03 52.72,83.32"/>
        <lane id="gneE14_1" index="1" speed="13.89" length="46.00" shape="61.30,61.47 49.93,81.76"/>
        <lane id="gneE14_2" index="2" speed="13.89" length="46.00" shape="58.51,59.90 47.14,80.19"/>
        <lane id="gneE14_3" index="3" speed="13.89" length="46.00" shape="55.72,58.34 44.35,78.63"/>
        <lane id="gneE14_4" index="4" speed="13.89" length="46.00" shape="52.93,56.77 41.56,77.06"/>
    </edge>
    <edge id="gneE15" from="e8" to="e1" priority="-1" length="55.08">
        <lane id="gneE15_0" index="0" speed="13.89" length="55.08" shape="39.87,90.68 4.80,89.98"/>
        <lane id="gneE15_1" index="1" speed="13.89" length="55.08" shape="39.94,87.48 4.87,86.78"/>
        <lane id="gneE15_2" index="2" speed="13.89" length="55.08" shape="40.00,84.28 4.93,83.58"/>
        <lane id="gneE15_3" index="3" speed="13.89" length="55.08" shape="40.06,81.08 4.99,80.38"/>
        <lane id="gneE15_4" index="4" speed="13.89" length="55.08" shape="40.13,77.88 5.06,77.18"/>
    </edge>
    <edge id="gneE8" from="e1" to="e2" priority="-1" length="44.64">
        <lane id="gneE8_0" index="0" speed="13.89" length="44.64" shape="-4.86,85.99 -21.22,70.34"/>
        <lane id="gneE8_1" index="1" speed="13.89" length="44.64" shape="-2.65,83.67 -19.01,68.02"/>
        <lane id="gneE8_2" index="2" speed="13.89" length="44.64" shape="-0.44,81.36 -16.80,65.71"/>
        <lane id="gneE8_3" index="3" speed="13.89" length="44.64" shape="1.77,79.05 -14.59,63.40"/>
        <lane id="gneE8_4" index="4" speed="13.89" length="44.64" shape="3.98,76.74 -12.38,61.09"/>
    </edge>
    <edge id="gneE9" from="e2" to="e3" priority="-1" length="36.79">
        <lane id="gneE9_0" index="0" speed="13.89" length="36.79" shape="-25.55,61.81 -28.00,43.18"/>
        <lane id="gneE9_1" index="1" speed="13.89" length="36.79" shape="-22.37,61.39 -24.82,42.76"/>
        <lane id="gneE9_2" index="2" speed="13.89" length="36.79" shape="-19.20,60.97 -21.65,42.34"/>
        <lane id="gneE9_3" index="3" speed="13.89" length="36.79" shape="-16.03,60.56 -18.48,41.93"/>
        <lane id="gneE9_4" index="4" speed="13.89" length="36.79" shape="-12.86,60.14 -15.31,41.51"/>
    </edge>

    <junction id="e1" type="priority" x="5.09" y="75.58" incLanes="gneE15_0 gneE15_1 gneE15_2 gneE15_3 gneE15_4" intLanes=":e1_0_0 :e1_0_1 :e1_0_2 :e1_0_3 :e1_0_4" shape="4.77,91.58 5.09,75.58 -5.97,87.14 -4.12,88.86 -2.61,90.05 -1.20,90.82 0.34,91.27 2.25,91.49">
        <request index="0" response="00000" foes="00000" cont="0"/>
        <request index="1" response="00000" foes="00000" cont="0"/>
        <request index="2" response="00000" foes="00000" cont="0"/>
        <request index="3" response="00000" foes="00000" cont="0"/>
        <request index="4" response="00000" foes="00000" cont="0"/>
    </junction>
    <junction id="e2" type="priority" x="-11.27" y="59.93" incLanes="gneE8_0 gneE8_1 gneE8_2 gneE8_3 gneE8_4" intLanes=":e2_0_0 :e2_0_1 :e2_0_2 :e2_0_3 :e2_0_4" shape="-22.33,71.49 -11.27,59.93 -27.13,62.02 -26.80,64.29 -26.43,66.00 -25.91,67.35 -25.13,68.57 -23.97,69.88">
        <request index="0" response="00000" foes="00000" cont="0"/>
        <request index="1" response="00000" foes="00000" cont="0"/>
        <request index="2" response="00000" foes="00000" cont="0"/>
        <request index="3" response="00000" foes="00000" cont="0"/>
        <request index="4" response="00000" foes="00000" cont="0"/>
    </junction>
    <junction id="e3" type="priority" x="-13.72" y="41.30" incLanes="gneE9_0 gneE9_1 gneE9_2 gneE9_3 gneE9_4" intLanes=":e3_0_0 :e3_0_1 :e3_0_2 :e3_0_3 :e3_0_4" shape="-29.58,43.39 -13.72,41.30 -22.33,27.81 -24.91,29.77 -26.95,31.98 -28.43,34.44 -29.37,37.17 -29.75,40.15">
        <request index="0" response="00000" foes="00000" cont="0"/>
        <request index="1" response="00000" foes="00000" cont="0"/>
        <request index="2" response="00000" foes="00000" cont="0"/>
        <request index="3" response="00000" foes="00000" cont="0"/>
        <request index="4" response="00000" foes="00000" cont="0"/>
    </junction>
    <junction id="e4" type="priority" x="3.69" y="30.19" incLanes="gneE10_0 gneE10_1 gneE10_2 gneE10_3 gneE10_4" intLanes=":e4_0_0 :e4_0_1 :e4_0_2 :e4_0_3 :e4_0_4" shape="3.69,30.19 3.47,14.19 0.17,14.35 -0.98,14.59 -2.07,15.02 -3.32,15.70 -4.92,16.70">
        <request index="0" response="00000" foes="00000" cont="0"/>
        <request index="1" response="00000" foes="00000" cont="0"/>
        <request index="2" response="00000" foes="00000" cont="0"/>
        <request index="3" response="00000" foes="00000" cont="0"/>
        <request index="4" response="00000" foes="00000" cont="0"/>
    </junction>
    <junction id="e5" type="priority" x="35.87" y="29.75" incLanes="gneE11_0 gneE11_1 gneE11_2 gneE11_3 gneE11_4" intLanes=":e5_0_0 :e5_0_1 :e5_0_2 :e5_0_3 :e5_0_4" shape="35.87,29.75 44.75,16.44 43.03,15.32 41.69,14.56 40.50,14.08 39.24,13.83 37.70,13.75 35.65,13.75">
        <request index="0" response="00000" foes="00000" cont="0"/>
        <request index="1" response="00000" foes="00000" cont="0"/>
        <request index="2" response="00000" foes="00000" cont="0"/>
        <request index="3" response="00000" foes="00000" cont="0"/>
        <request index="4" response="00000" foes="00000" cont="0"/>
    </junction>
    <junction id="e6" type="priority" x="49.52" y="38.85" incLanes="gneE12_0 gneE12_1 gneE12_2 gneE12_3 gneE12_4" intLanes=":e6_0_0 :e6_0_1 :e6_0_2 :e6_0_3 :e6_0_4" shape="49.52,38.85 65.41,36.99 64.98,34.63 64.25,32.45 63.23,30.45 61.91,28.63 60.30,26.99 58.40,25.54">
        <request index="0" response="00000" foes="00000" cont="0"/>
        <request index="1" response="00000" foes="00000" cont="0"/>
        <request index="2" response="00000" foes="00000" cont="0"/>
        <request index="3" response="00000" foes="00000" cont="0"/>
        <request index="4" response="00000" foes="00000" cont="0"/>
    </junction>
    <junction id="e7" type="priority" x="51.53" y="55.99" incLanes="gneE13_0 gneE13_1 gneE13_2 gneE13_3 gneE13_4" intLanes=":e7_0_0 :e7_0_1 :e7_0_2 :e7_0_3 :e7_0_4" shape="67.42,54.13 51.53,55.99 65.49,63.81 66.51,61.94 67.19,60.48 67.58,59.19 67.71,57.86 67.65,56.25">
        <request index="0" response="00000" foes="00000" cont="0"/>
        <request index="1" response="00000" foes="00000" cont="0"/>
        <request index="2" response="00000" foes="00000" cont="0"/>
        <request index="3" response="00000" foes="00000" cont="0"/>
        <request index="4" response="00000" foes="00000" cont="0"/>
    </junction>
    <junction id="e8" type="priority" x="40.16" y="76.28" incLanes="gneE14_0 gneE14_1 gneE14_2 gneE14_3 gneE14_4" intLanes=":e8_0_0 :e8_0_1 :e8_0_2 :e8_0_3 :e8_0_4" shape="54.12,84.10 40.16,76.28 39.84,92.28 42.90,92.10 45.69,91.45 48.20,90.33 50.45,88.73 52.42,86.65">
        <request index="0" response="00000" foes="00000" cont="0"/>
        <request index="1" response="00000" foes="00000" cont="0"/>
        <request index="2" response="00000" foes="00000" cont="0"/>
        <request index="3" response="00000" foes="00000" cont="0"/>
        <request index="4" response="00000" foes="00000" cont="0"/>
    </junction>

    <connection from="gneE10" to="gneE11" fromLane="0" toLane="0" via=":e4_0_0" dir="s" state="M"/>
    <connection from="gneE10" to="gneE11" fromLane="1" toLane="1" via=":e4_0_1" dir="s" state="M"/>
    <connection from="gneE10" to="gneE11" fromLane="2" toLane="2" via=":e4_0_2" dir="s" state="M"/>
    <connection from="gneE10" to="gneE11" fromLane="3" toLane="3" via=":e4_0_3" dir="s" state="M"/>
    <connection from="gneE10" to="gneE11" fromLane="4" toLane="4" via=":e4_0_4" dir="s" state="M"/>
    <connection from="gneE11" to="gneE12" fromLane="0" toLane="0" via=":e5_0_0" dir="s" state="M"/>
    <connection from="gneE11" to="gneE12" fromLane="1" toLane="1" via=":e5_0_1" dir="s" state="M"/>
    <connection from="gneE11" to="gneE12" fromLane="2" toLane="2" via=":e5_0_2" dir="s" state="M"/>
    <connection from="gneE11" to="gneE12" fromLane="3" toLane="3" via=":e5_0_3" dir="s" state="M"/>
    <connection from="gneE11" to="gneE12" fromLane="4" toLane="4" via=":e5_0_4" dir="s" state="M"/>
    <connection from="gneE12" to="gneE13" fromLane="0" toLane="0" via=":e6_0_0" dir="l" state="M"/>
    <connection from="gneE12" to="gneE13" fromLane="1" toLane="1" via=":e6_0_1" dir="l" state="M"/>
    <connection from="gneE12" to="gneE13" fromLane="2" toLane="2" via=":e6_0_2" dir="l" state="M"/>
    <connection from="gneE12" to="gneE13" fromLane="3" toLane="3" via=":e6_0_3" dir="l" state="M"/>
    <connection from="gneE12" to="gneE13" fromLane="4" toLane="4" via=":e6_0_4" dir="l" state="M"/>
    <connection from="gneE13" to="gneE14" fromLane="0" toLane="0" via=":e7_0_0" dir="s" state="M"/>
    <connection from="gneE13" to="gneE14" fromLane="1" toLane="1" via=":e7_0_1" dir="s" state="M"/>
    <connection from="gneE13" to="gneE14" fromLane="2" toLane="2" via=":e7_0_2" dir="s" state="M"/>
    <connection from="gneE13" to="gneE14" fromLane="3" toLane="3" via=":e7_0_3" dir="s" state="M"/>
    <connection from="gneE13" to="gneE14" fromLane="4" toLane="4" via=":e7_0_4" dir="s" state="M"/>
    <connection from="gneE14" to="gneE15" fromLane="0" toLane="0" via=":e8_0_0" dir="l" state="M"/>
    <connection from="gneE14" to="gneE15" fromLane="1" toLane="1" via=":e8_0_1" dir="l" state="M"/>
    <connection from="gneE14" to="gneE15" fromLane="2" toLane="2" via=":e8_0_2" dir="l" state="M"/>
    <connection from="gneE14" to="gneE15" fromLane="3" toLane="3" via=":e8_0_3" dir="l" state="M"/>
    <connection from="gneE14" to="gneE15" fromLane="4" toLane="4" via=":e8_0_4" dir="l" state="M"/>
    <connection from="gneE15" to="gneE8" fromLane="0" toLane="0" via=":e1_0_0" dir="s" state="M"/>
    <connection from="gneE15" to="gneE8" fromLane="1" toLane="1" via=":e1_0_1" dir="s" state="M"/>
    <connection from="gneE15" to="gneE8" fromLane="2" toLane="2" via=":e1_0_2" dir="s" state="M"/>
    <connection from="gneE15" to="gneE8" fromLane="3" toLane="3" via=":e1_0_3" dir="s" state="M"/>
    <connection from="gneE15" to="gneE8" fromLane="4" toLane="4" via=":e1_0_4" dir="s" state="M"/>
    <connection from="gneE8" to="gneE9" fromLane="0" toLane="0" via=":e2_0_0" dir="s" state="M"/>
    <connection from="gneE8" to="gneE9" fromLane="1" toLane="1" via=":e2_0_1" dir="s" state="M"/>
    <connection from="gneE8" to="gneE9" fromLane="2" toLane="2" via=":e2_0_2" dir="s" state="M"/>
    <connection from="gneE8" to="gneE9" fromLane="3" toLane="3" via=":e2_0_3" dir="s" state="M"/>
    <connection from="gneE8" to="gneE9" fromLane="4" toLane="4" via=":e2_0_4" dir="s" state="M"/>
    <connection from="gneE9" to="gneE10" fromLane="0" toLane="0" via=":e3_0_0" dir="l" state="M"/>
    <connection from="gneE9" to="gneE10" fromLane="1" toLane="1" via=":e3_0_1" dir="l" state="M"/>
    <connection from="gneE9" to="gneE10" fromLane="2" toLane="2" via=":e3_0_2" dir="l" state="M"/>
    <connection from="gneE9" to="gneE10" fromLane="3" toLane="3" via=":e3_0_3" dir="l" state="M"/>
    <connection from="gneE9" to="gneE10" fromLane="4" toLane="4" via=":e3_0_4" dir="l" state="M"/>

    <connection from=":e1_0" to="gneE8" fromLane="0" toLane="0" dir="s" state="M"/>
    <connection from=":e1_0" to="gneE8" fromLane="1" toLane="1" dir="s" state="M"/>
    <connection from=":e1_0" to="gneE8" fromLane="2" toLane="2" dir="s" state="M"/>
    <connection from=":e1_0" to="gneE8" fromLane="3" toLane="3" dir="s" state="M"/>
    <connection from=":e1_0" to="gneE8" fromLane="4" toLane="4" dir="s" state="M"/>
    <connection from=":e2_0" to="gneE9" fromLane="0" toLane="0" dir="s" state="M"/>
    <connection from=":e2_0" to="gneE9" fromLane="1" toLane="1" dir="s" state="M"/>
    <connection from=":e2_0" to="gneE9" fromLane="2" toLane="2" dir="s" state="M"/>
    <connection from=":e2_0" to="gneE9" fromLane="3" toLane="3" dir="s" state="M"/>
    <connection from=":e2_0" to="gneE9" fromLane="4" toLane="4" dir="s" state="M"/>
    <connection from=":e3_0" to="gneE10" fromLane="0" toLane="0" dir="l" state="M"/>
    <connection from=":e3_0" to="gneE10" fromLane="1" toLane="1" dir="l" state="M"/>
    <connection from=":e3_0" to="gneE10" fromLane="2" toLane="2" dir="l" state="M"/>
    <connection from=":e3_0" to="gneE10" fromLane="3" toLane="3" dir="l" state="M"/>
    <connection from=":e3_0" to="gneE10" fromLane="4" toLane="4" dir="l" state="M"/>
    <connection from=":e4_0" to="gneE11" fromLane="0" toLane="0" dir="s" state="M"/>
    <connection from=":e4_0" to="gneE11" fromLane="1" toLane="1" dir="s" state="M"/>
    <connection from=":e4_0" to="gneE11" fromLane="2" toLane="2" dir="s" state="M"/>
    <connection from=":e4_0" to="gneE11" fromLane="3" toLane="3" dir="s" state="M"/>
    <connection from=":e4_0" to="gneE11" fromLane="4" toLane="4" dir="s" state="M"/>
    <connection from=":e5_0" to="gneE12" fromLane="0" toLane="0" dir="s" state="M"/>
    <connection from=":e5_0" to="gneE12" fromLane="1" toLane="1" dir="s" state="M"/>
    <connection from=":e5_0" to="gneE12" fromLane="2" toLane="2" dir="s" state="M"/>
    <connection from=":e5_0" to="gneE12" fromLane="3" toLane="3" dir="s" state="M"/>
    <connection from=":e5_0" to="gneE12" fromLane="4" toLane="4" dir="s" state="M"/>
    <connection from=":e6_0" to="gneE13" fromLane="0" toLane="0" dir="l" state="M"/>
    <connection from=":e6_0" to="gneE13" fromLane="1" toLane="1" dir="l" state="M"/>
    <connection from=":e6_0" to="gneE13" fromLane="2" toLane="2" dir="l" state="M"/>
    <connection from=":e6_0" to="gneE13" fromLane="3" toLane="3" dir="l" state="M"/>
    <connection from=":e6_0" to="gneE13" fromLane="4" toLane="4" dir="l" state="M"/>
    <connection from=":e7_0" to="gneE14" fromLane="0" toLane="0" dir="s" state="M"/>
    <connection from=":e7_0" to="gneE14" fromLane="1" toLane="1" dir="s" state="M"/>
    <connection from=":e7_0" to="gneE14" fromLane="2" toLane="2" dir="s" state="M"/>
    <connection from=":e7_0" to="gneE14" fromLane="3" toLane="3" dir="s" state="M"/>
    <connection from=":e7_0" to="gneE14" fromLane="4" toLane="4" dir="s" state="M"/>
    <connection from=":e8_0" to="gneE15" fromLane="0" toLane="0" dir="l" state="M"/>
    <connection from=":e8_0" to="gneE15" fromLane="1" toLane="1" dir="l" state="M"/>
    <connection from=":e8_0" to="gneE15" fromLane="2" toLane="2" dir="l" state="M"/>
    <connection from=":e8_0" to="gneE15" fromLane="3" toLane="3" dir="l" state="M"/>
    <connection from=":e8_0" to="gneE15" fromLane="4" toLane="4" dir="l" state="M"/>

</net>
