<?xml version="1.0" encoding="UTF-8"?>
<nodes>
    <node id="start" x="0.0" y="0.0" type="priority"/>
    <node id="end" x="1000.0" y="0.0" type="priority"/>
</nodes>
