<?xml version="1.0" encoding="UTF-8"?>
<configuration>
    <input>
        <net-file value="../network/myNetwork.net.xml"/>
        <route-files value="../routes/myRoutes_heavy.rou.xml"/>
    </input>
    <time>
        <begin value="0"/>
        <end value="600"/>
        <step-length value="0.1"/>
    </time>
</configuration>
